data/case118_modified.m
function mpc = case118_modified
%   SALT variant of case118, generated by build_timing_cases.m:
%     - 9 transformer ratios set to 1 (as consistent with ParaEMT,
%       NREL's open-source EMT simulator, which reads the tap ratio
%       from the power flow but never uses it - its transformers are
%       stamped as a plain series R-L; see lib_numba.py "R-L model
%       xfmr", where xfmr_k is stored and never consumed. M. Xiong et
%       al., IEEE Trans. Power Del., vol. 39, no. 2, 2024), 0 phase
%       shifts set to 0
%     - 0 branches reclassified from PI line to series R-L (their own
%       data has no resistance, no charging, or capacitive reactance,
%       so a PI line cannot describe them); impedances unchanged
%     - 175 line ratings set to 9999 MVA, standing in for MATPOWER's
%       "0 = unlimited" (not a real thermal limit)
%     - 0 generators dropped (offline or zero injection), 0 lumped
%       onto shared buses, 0 buses demoted PV -> PQ
%     - the case below is RE-SOLVED for this modified network in SALT, 
%       which can differ from MATPOWER file as-shipped for two reasons: the
%       source case is not itself a solved snapshot, and setting the tap
%       ratios to 1 moves the operating point again. Impedances,
%       loads, limits, shunts, bus types and areas are unchanged.
%
%CASE118_MODIFIED

%% MATPOWER Case Format : Version 2
mpc.version = '2';

%%-----  Power Flow Data  -----%%
%% system MVA base
mpc.baseMVA = 100;

%% bus data
%	bus_i	type	Pd	Qd	Gs	Bs	area	Vm	Va	baseKV	zone	Vmax	Vmin
mpc.bus = [
	1	2	51	27	0	0	1	0.955	11.0298594	138	1	1.06	0.94;
	2	1	20	9	0	0	1	0.971393042	11.5682182	138	1	1.06	0.94;
	3	1	39	10	0	0	1	0.966988674	11.9273104	138	1	1.06	0.94;
	4	2	39	12	0	0	1	0.998	15.6532584	138	1	1.06	0.94;
	5	1	0	0	0	-40	1	0.999087287	16.1385737	138	1	1.06	0.94;
	6	2	52	22	0	0	1	0.99	13.3565573	138	1	1.06	0.94;
	7	1	19	2	0	0	1	0.989328571	12.9082919	138	1	1.06	0.94;
	8	2	28	0	0	0	1	1.015	21.2639093	345	1	1.06	0.94;
	9	1	0	0	0	0	1	1.04291821	28.5180143	345	1	1.06	0.94;
	10	2	0	0	0	0	1	1.05	36.0989235	345	1	1.06	0.94;
	11	1	70	23	0	0	1	0.984562234	13.0728394	138	1	1.06	0.94;
	12	2	47	10	0	0	1	0.99	12.5437208	138	1	1.06	0.94;
	13	1	34	16	0	0	1	0.967884143	11.6819204	138	1	1.06	0.94;
	14	1	14	1	0	0	1	0.983588223	11.8134831	138	1	1.06	0.94;
	15	2	90	30	0	0	1	0.97	11.4801796	138	1	1.06	0.94;
	16	1	25	10	0	0	1	0.982564809	12.2469774	138	1	1.06	0.94;
	17	1	11	3	0	0	1	0.990936479	14.0756372	138	1	1.06	0.94;
	18	2	60	34	0	0	1	0.973	11.7894562	138	1	1.06	0.94;
	19	2	45	25	0	0	1	0.962	11.3200191	138	1	1.06	0.94;
	20	1	18	3	0	0	1	0.956943975	12.1924555	138	1	1.06	0.94;
	21	1	14	8	0	0	1	0.957739418	13.776547	138	1	1.06	0.94;
	22	1	10	5	0	0	1	0.969034967	16.3268989	138	1	1.06	0.94;
	23	1	7	3	0	0	1	0.999475496	21.2387898	138	1	1.06	0.94;
	24	2	13	0	0	0	1	0.992	21.1023814	138	1	1.06	0.94;
	25	2	0	0	0	0	1	1.05	28.16666	138	1	1.06	0.94;
	26	2	0	0	0	0	1	1.015	30.0181494	345	1	1.06	0.94;
	27	2	71	13	0	0	1	0.968	15.5983646	138	1	1.06	0.94;
	28	1	17	7	0	0	1	0.961568204	13.87418	138	1	1.06	0.94;
	29	1	24	4	0	0	1	0.963215991	12.88227	138	1	1.06	0.94;
	30	1	0	0	0	0	1	1.00852516	19.2140489	345	1	1.06	0.94;
	31	2	43	27	0	0	1	0.967	12.9992978	138	1	1.06	0.94;
	32	2	59	23	0	0	1	0.963	15.0560238	138	1	1.06	0.94;
	33	1	23	9	0	0	1	0.968871356	10.8832144	138	1	1.06	0.94;
	34	2	59	26	0	14	1	0.984	11.5038576	138	1	1.06	0.94;
	35	1	33	9	0	0	1	0.979708013	11.0609996	138	1	1.06	0.94;
	36	2	31	17	0	0	1	0.98	11.0508523	138	1	1.06	0.94;
	37	1	0	0	0	-25	1	0.986311733	12.0290721	138	1	1.06	0.94;
	38	1	0	0	0	0	1	1.00128761	17.3262212	345	1	1.06	0.94;
	39	1	27	11	0	0	1	0.968335356	8.56605003	138	1	1.06	0.94;
	40	2	66	23	0	0	1	0.97	7.45269051	138	1	1.06	0.94;
	41	1	37	10	0	0	1	0.966832294	7.00927888	138	1	1.06	0.94;
	42	2	96	23	0	0	1	0.985	8.61210488	138	1	1.06	0.94;
	43	1	18	7	0	0	1	0.977133043	11.4450863	138	1	1.06	0.94;
	44	1	16	8	0	10	1	0.984455412	13.916657	138	1	1.06	0.94;
	45	1	53	22	0	10	1	0.98639896	15.7418034	138	1	1.06	0.94;
	46	2	28	10	0	10	1	1.005	18.5434854	138	1	1.06	0.94;
	47	1	34	0	0	0	1	1.01704009	20.7681645	138	1	1.06	0.94;
	48	1	20	11	0	15	1	1.02063451	19.9822823	138	1	1.06	0.94;
	49	2	87	30	0	0	1	1.025	20.9843407	138	1	1.06	0.94;
	50	1	17	4	0	0	1	1.00107818	18.9424923	138	1	1.06	0.94;
	51	1	17	8	0	0	1	0.966868488	16.3199064	138	1	1.06	0.94;
	52	1	18	5	0	0	1	0.956809207	15.3655496	138	1	1.06	0.94;
	53	1	23	11	0	0	1	0.945978468	14.3880502	138	1	1.06	0.94;
	54	2	113	32	0	0	1	0.955	15.2978998	138	1	1.06	0.94;
	55	2	63	22	0	0	1	0.952	15.0070901	138	1	1.06	0.94;
	56	2	84	18	0	0	1	0.954	15.1942946	138	1	1.06	0.94;
	57	1	12	3	0	0	1	0.970577855	16.4030462	138	1	1.06	0.94;
	58	1	12	3	0	0	1	0.95903345	15.5455354	138	1	1.06	0.94;
	59	2	277	113	0	0	1	0.985	19.3870512	138	1	1.06	0.94;
	60	1	78	3	0	0	1	0.993155367	23.1800291	138	1	1.06	0.94;
	61	2	0	0	0	0	1	0.995	24.0719452	138	1	1.06	0.94;
	62	2	77	14	0	0	1	0.998	23.456773	138	1	1.06	0.94;
	63	1	0	0	0	0	1	0.992562369	22.8101625	345	1	1.06	0.94;
	64	1	0	0	0	0	1	0.998326209	24.5460923	345	1	1.06	0.94;
	65	2	0	0	0	0	1	1.005	27.6905078	345	1	1.06	0.94;
	66	2	39	18	0	0	1	1.05	27.5185962	138	1	1.06	0.94;
	67	1	28	7	0	0	1	1.01967923	24.8752746	138	1	1.06	0.94;
	68	1	0	0	0	0	1	1.01233111	27.5158778	345	1	1.06	0.94;
	69	3	0	0	0	0	1	1.035	30	138	1	1.06	0.94;
	70	2	66	20	0	0	1	0.984	22.5996022	138	1	1.06	0.94;
	71	1	0	0	0	0	1	0.986844665	22.1891761	138	1	1.06	0.94;
	72	2	12	0	0	0	1	0.98	21.0938374	138	1	1.06	0.94;
	73	2	6	0	0	0	1	0.991	21.9776843	138	1	1.06	0.94;
	74	2	68	27	0	12	1	0.958	21.6389662	138	1	1.06	0.94;
	75	1	47	11	0	0	1	0.967322738	22.8972654	138	1	1.06	0.94;
	76	2	68	36	0	0	1	0.943	21.744395	138	1	1.06	0.94;
	77	2	61	28	0	0	1	1.006	26.6661654	138	1	1.06	0.94;
	78	1	71	26	0	0	1	1.0034214	26.3586994	138	1	1.06	0.94;
	79	1	39	32	0	20	1	1.009225	26.6509069	138	1	1.06	0.94;
	80	2	130	26	0	0	1	1.04	28.8771117	138	1	1.06	0.94;
	81	1	0	0	0	0	1	1.0279723	27.9582479	345	1	1.06	0.94;
	82	1	54	27	0	20	1	0.98854281	27.1742021	138	1	1.06	0.94;
	83	1	20	10	0	10	1	0.984377165	28.3653728	138	1	1.06	0.94;
	84	1	11	7	0	0	1	0.979704549	30.9000611	138	1	1.06	0.94;
	85	2	24	15	0	0	1	0.985	32.4545619	138	1	1.06	0.94;
	86	1	21	10	0	0	1	0.986690746	31.0851131	138	1	1.06	0.94;
	87	2	0	0	0	0	1	1.015	31.3443256	161	1	1.06	0.94;
	88	1	48	10	0	0	1	0.987454558	35.5878812	138	1	1.06	0.94;
	89	2	0	0	0	0	1	1.005	39.6449055	138	1	1.06	0.94;
	90	2	163	42	0	0	1	0.985	33.2347149	138	1	1.06	0.94;
	91	2	10	0	0	0	1	0.98	33.2466964	138	1	1.06	0.94;
	92	2	65	10	0	0	1	0.99	33.7764298	138	1	1.06	0.94;
	93	1	12	7	0	0	1	0.985431752	30.7443176	138	1	1.06	0.94;
	94	1	30	16	0	0	1	0.989828406	28.5770716	138	1	1.06	0.94;
	95	1	42	31	0	0	1	0.980328838	27.6048487	138	1	1.06	0.94;
	96	1	38	15	0	0	1	0.992278366	27.4384204	138	1	1.06	0.94;
	97	1	15	9	0	0	1	1.01116496	27.8072977	138	1	1.06	0.94;
	98	1	34	8	0	0	1	1.02350899	27.3226548	138	1	1.06	0.94;
	99	2	42	0	0	0	1	1.01	26.958158	138	1	1.06	0.94;
	100	2	37	18	0	0	1	1.017	27.9519815	138	1	1.06	0.94;
	101	1	22	15	0	0	1	0.991418527	29.5410716	138	1	1.06	0.94;
	102	1	5	3	0	0	1	0.989130041	32.2601374	138	1	1.06	0.94;
	103	2	23	16	0	0	1	1.01	24.2108916	138	1	1.06	0.94;
	104	2	38	25	0	0	1	0.971	21.6409065	138	1	1.06	0.94;
	105	2	31	26	0	20	1	0.965	20.5367048	138	1	1.06	0.94;
	106	1	43	16	0	0	1	0.961146318	20.2765439	138	1	1.06	0.94;
	107	2	50	12	0	6	1	0.952	17.4758073	138	1	1.06	0.94;
	108	1	2	1	0	0	1	0.966211754	19.3366241	138	1	1.06	0.94;
	109	1	8	3	0	0	1	0.967025527	18.8840259	138	1	1.06	0.94;
	110	2	39	30	0	6	1	0.973	18.0371664	138	1	1.06	0.94;
	111	2	0	0	0	0	1	0.98	19.6822473	138	1	1.06	0.94;
	112	2	68	13	0	0	1	0.975	14.9379488	138	1	1.06	0.94;
	113	2	6	0	0	0	1	0.993	13.9986249	138	1	1.06	0.94;
	114	1	8	3	0	0	1	0.96009312	14.7211762	138	1	1.06	0.94;
	115	1	22	7	0	0	1	0.960022931	14.7127914	138	1	1.06	0.94;
	116	2	184	0	0	0	1	1.005	27.1279712	138	1	1.06	0.94;
	117	1	20	8	0	0	1	0.973824447	11.0027204	138	1	1.06	0.94;
	118	1	33	15	0	0	1	0.949430856	21.8989838	138	1	1.06	0.94;
];

%% generator data
%	bus	Pg	Qg	Qmax	Qmin	Vg	mBase	status	Pmax	Pmin	Pc1	Pc2	Qc1min	Qc1max	Qc2min	Qc2max	ramp_agc	ramp_10	ramp_30	ramp_q	apf
mpc.gen = [
	1	0	-1.51243419	15	-5	0.955	100	1	100	0	0	0	0	0	0	0	0	0	0	0	0;
	4	0	22.0334121	300	-300	0.998	100	1	100	0	0	0	0	0	0	0	0	0	0	0	0;
	6	0	21.3186634	50	-13	0.99	100	1	100	0	0	0	0	0	0	0	0	0	0	0	0;
	8	0	-32.4647849	300	-300	1.015	100	1	100	0	0	0	0	0	0	0	0	0	0	0	0;
	10	450	-51.0421516	200	-147	1.05	100	1	550	0	0	0	0	0	0	0	0	0	0	0	0;
	12	85	95.9802226	120	-35	0.99	100	1	185	0	0	0	0	0	0	0	0	0	0	0	0;
	15	0	18.271112	30	-10	0.97	100	1	100	0	0	0	0	0	0	0	0	0	0	0	0;
	18	0	36.5167431	50	-16	0.973	100	1	100	0	0	0	0	0	0	0	0	0	0	0	0;
	19	0	-14.2858681	24	-8	0.962	100	1	100	0	0	0	0	0	0	0	0	0	0	0	0;
	24	0	-14.9124008	300	-300	0.992	100	1	100	0	0	0	0	0	0	0	0	0	0	0	0;
	25	220	166.338918	140	-47	1.05	100	1	320	0	0	0	0	0	0	0	0	0	0	0	0;
	26	314	-130.370099	1000	-1000	1.015	100	1	414	0	0	0	0	0	0	0	0	0	0	0	0;
	27	0	3.96823004	300	-300	0.968	100	1	100	0	0	0	0	0	0	0	0	0	0	0	0;
	31	7	35.1697862	300	-300	0.967	100	1	107	0	0	0	0	0	0	0	0	0	0	0	0;
	32	0	-16.2981809	42	-14	0.963	100	1	100	0	0	0	0	0	0	0	0	0	0	0	0;
	34	0	24.816195	24	-8	0.984	100	1	100	0	0	0	0	0	0	0	0	0	0	0	0;
	36	0	14.8589972	24	-8	0.98	100	1	100	0	0	0	0	0	0	0	0	0	0	0	0;
	40	0	33.6606998	300	-300	0.97	100	1	100	0	0	0	0	0	0	0	0	0	0	0	0;
	42	0	41.0360113	300	-300	0.985	100	1	100	0	0	0	0	0	0	0	0	0	0	0	0;
	46	19	-5.0348063	100	-100	1.005	100	1	119	0	0	0	0	0	0	0	0	0	0	0	0;
	49	204	115.928615	210	-85	1.025	100	1	304	0	0	0	0	0	0	0	0	0	0	0	0;
	54	48	3.91627069	300	-300	0.955	100	1	148	0	0	0	0	0	0	0	0	0	0	0	0;
	55	0	4.66432557	23	-8	0.952	100	1	100	0	0	0	0	0	0	0	0	0	0	0	0;
	56	0	-2.284184	15	-8	0.954	100	1	100	0	0	0	0	0	0	0	0	0	0	0	0;
	59	155	119.211203	180	-60	0.985	100	1	255	0	0	0	0	0	0	0	0	0	0	0	0;
	61	160	-38.9430506	300	-100	0.995	100	1	260	0	0	0	0	0	0	0	0	0	0	0	0;
	62	0	1.26825136	20	-20	0.998	100	1	100	0	0	0	0	0	0	0	0	0	0	0	0;
	65	391	-259.269904	200	-67	1.005	100	1	491	0	0	0	0	0	0	0	0	0	0	0	0;
	66	392	196.304404	200	-67	1.05	100	1	492	0	0	0	0	0	0	0	0	0	0	0	0;
	69	513.294645	86.7909141	300	-300	1.035	100	1	805.2	0	0	0	0	0	0	0	0	0	0	0	0;
	70	0	9.68319101	32	-10	0.984	100	1	100	0	0	0	0	0	0	0	0	0	0	0	0;
	72	0	-11.1306342	100	-100	0.98	100	1	100	0	0	0	0	0	0	0	0	0	0	0	0;
	73	0	9.65106889	100	-100	0.991	100	1	100	0	0	0	0	0	0	0	0	0	0	0	0;
	74	0	-5.60420926	9	-6	0.958	100	1	100	0	0	0	0	0	0	0	0	0	0	0	0;
	76	0	5.25201513	23	-8	0.943	100	1	100	0	0	0	0	0	0	0	0	0	0	0	0;
	77	0	12.1220161	70	-20	1.006	100	1	100	0	0	0	0	0	0	0	0	0	0	0	0;
	80	477	213.226443	280	-165	1.04	100	1	577	0	0	0	0	0	0	0	0	0	0	0	0;
	85	0	-5.60697858	23	-8	0.985	100	1	100	0	0	0	0	0	0	0	0	0	0	0	0;
	87	4	11.0216074	1000	-100	1.015	100	1	104	0	0	0	0	0	0	0	0	0	0	0	0;
	89	607	-5.90860146	300	-210	1.005	100	1	707	0	0	0	0	0	0	0	0	0	0	0	0;
	90	0	59.3087748	300	-300	0.985	100	1	100	0	0	0	0	0	0	0	0	0	0	0	0;
	91	0	-13.088079	100	-100	0.98	100	1	100	0	0	0	0	0	0	0	0	0	0	0	0;
	92	0	-13.9459451	9	-3	0.99	100	1	100	0	0	0	0	0	0	0	0	0	0	0	0;
	99	0	-17.5361815	100	-100	1.01	100	1	100	0	0	0	0	0	0	0	0	0	0	0	0;
	100	252	95.5638987	155	-50	1.017	100	1	352	0	0	0	0	0	0	0	0	0	0	0	0;
	103	40	75.4223636	40	-15	1.01	100	1	140	0	0	0	0	0	0	0	0	0	0	0	0;
	104	0	2.38825178	23	-8	0.971	100	1	100	0	0	0	0	0	0	0	0	0	0	0	0;
	105	0	-18.3345253	23	-8	0.965	100	1	100	0	0	0	0	0	0	0	0	0	0	0	0;
	107	0	6.55781883	200	-200	0.952	100	1	100	0	0	0	0	0	0	0	0	0	0	0	0;
	110	0	0.280833632	23	-8	0.973	100	1	100	0	0	0	0	0	0	0	0	0	0	0	0;
	111	36	-1.84382478	1000	-100	0.98	100	1	136	0	0	0	0	0	0	0	0	0	0	0	0;
	112	0	41.5116934	1000	-100	0.975	100	1	100	0	0	0	0	0	0	0	0	0	0	0	0;
	113	0	20.4516158	200	-100	0.993	100	1	100	0	0	0	0	0	0	0	0	0	0	0	0;
	116	0	-174.179704	1000	-1000	1.005	100	1	100	0	0	0	0	0	0	0	0	0	0	0	0;
];

%% branch data
%	fbus	tbus	r	x	b	rateA	rateB	rateC	ratio	angle	status	angmin	angmax	Pf	Qf	Pt	Qt
mpc.branch = [
	1	2	0.0303	0.0999	0.0254	9999	0	0	0	0	1	-360	360	-12.3314	-13.0481	12.4289	11.0129;
	1	3	0.0129	0.0424	0.01082	9999	0	0	0	0	1	-360	360	-38.6686	-15.4643	38.9118	15.2644;
	4	5	0.00176	0.00798	0.0021	9999	0	0	0	0	1	-360	360	-103.6908	9.6149	103.8825	-8.9553;
	3	5	0.0241	0.108	0.0284	9999	0	0	0	0	1	-360	360	-68.1698	-12.4404	69.3994	15.2053;
	5	6	0.0119	0.054	0.01426	9999	0	0	0	0	1	-360	360	88.7717	-1.3026	-87.8322	4.1555;
	6	7	0.00459	0.0208	0.0055	9999	0	0	0	0	1	-360	360	35.8322	-4.8369	-35.7711	4.5751;
	8	9	0.00244	0.0305	1.162	9999	0	0	0	0	1	-360	360	-440.6350	-89.7336	445.2546	24.4289;
	8	5	0	0.0267	0	0	0	0	1	0	1	-360	360	339.2958	75.6780	-339.2958	-44.3580;
	9	10	0.00258	0.0322	1.23	9999	0	0	0	0	1	-360	360	-445.2546	-24.4289	450.0000	-51.0422;
	4	11	0.0209	0.0688	0.01748	9999	0	0	0	0	1	-360	360	64.6908	0.4185	-63.8123	0.7557;
	5	11	0.0203	0.0682	0.01738	9999	0	0	0	0	1	-360	360	77.2422	-0.5164	-76.0288	2.8832;
	11	12	0.00595	0.0196	0.00502	9999	0	0	0	0	1	-360	360	34.5161	-37.8248	-34.3562	37.8619;
	2	12	0.0187	0.0616	0.01572	9999	0	0	0	0	1	-360	360	-32.4289	-20.0129	32.7109	19.4298;
	3	12	0.0484	0.16	0.0406	9999	0	0	0	0	1	-360	360	-9.7419	-12.8239	9.8528	9.3028;
	7	12	0.00862	0.034	0.00874	9999	0	0	0	0	1	-360	360	16.7711	-6.5751	-16.7430	5.8299;
	11	13	0.02225	0.0731	0.01876	9999	0	0	0	0	1	-360	360	35.3251	11.1859	-35.0051	-11.9226;
	12	14	0.0215	0.0707	0.01816	9999	0	0	0	0	1	-360	360	18.5978	2.5446	-18.5193	-4.0550;
	13	15	0.0744	0.2444	0.06268	9999	0	0	0	0	1	-360	360	1.0051	-4.0774	-1.0032	-1.8012;
	14	15	0.0595	0.195	0.0502	9999	0	0	0	0	1	-360	360	4.5193	3.0550	-4.4882	-7.7432;
	12	16	0.0212	0.0834	0.0214	9999	0	0	0	0	1	-360	360	7.7852	5.8139	-7.7619	-7.8040;
	15	17	0.0132	0.0437	0.0444	9999	0	0	0	0	1	-360	360	-103.5156	-15.0368	105.0424	15.8227;
	16	17	0.0454	0.1801	0.0466	9999	0	0	0	0	1	-360	360	-17.2381	-2.1960	17.3779	-1.7871;
	17	18	0.0123	0.0505	0.01298	9999	0	0	0	0	1	-360	360	80.3389	16.5106	-79.4936	-14.2917;
	18	19	0.01119	0.0493	0.01142	9999	0	0	0	0	1	-360	360	19.4936	16.8085	-19.4131	-17.5229;
	19	20	0.0252	0.117	0.0298	9999	0	0	0	0	1	-360	360	-10.5748	5.1471	10.6168	-7.6953;
	15	19	0.012	0.0394	0.0101	9999	0	0	0	0	1	-360	360	11.5504	15.7117	-11.4999	-16.4886;
	20	21	0.0183	0.0849	0.0216	9999	0	0	0	0	1	-360	360	-28.6168	4.6953	28.7869	-5.8857;
	21	22	0.0209	0.097	0.0246	9999	0	0	0	0	1	-360	360	-42.7869	-2.1143	43.2043	1.7680;
	22	23	0.0342	0.159	0.0404	9999	0	0	0	0	1	-360	360	-53.2043	-6.7680	54.2439	7.6865;
	23	24	0.0135	0.0492	0.0498	9999	0	0	0	0	1	-360	360	8.3384	10.4165	-8.3065	-15.2379;
	23	25	0.0156	0.08	0.0864	9999	0	0	0	0	1	-360	360	-162.4928	-26.1741	166.6907	38.6237;
	26	25	0	0.0382	0	0	0	0	1	0	1	-360	360	90.1395	-91.5408	-90.1395	97.6607;
	25	27	0.0318	0.163	0.1764	9999	0	0	0	0	1	-360	360	143.4487	30.0545	-137.0570	-15.2806;
	27	28	0.01913	0.0855	0.0216	9999	0	0	0	0	1	-360	360	32.8506	-0.5873	-32.6302	-0.4384;
	28	29	0.0237	0.0943	0.0238	9999	0	0	0	0	1	-360	360	15.6302	-6.5616	-15.5599	4.6368;
	30	17	0	0.0388	0	0	0	0	1	0	1	-360	360	230.6879	56.0693	-230.6879	-34.5695;
	8	30	0.00431	0.0504	0.514	9999	0	0	0	0	1	-360	360	73.3392	-18.4091	-73.1114	-31.5446;
	26	30	0.00799	0.086	0.908	9999	0	0	0	0	1	-360	360	223.8605	-38.8293	-219.9690	-12.2344;
	17	31	0.0474	0.1563	0.0399	9999	0	0	0	0	1	-360	360	14.7910	8.8392	-14.6292	-12.1299;
	29	31	0.0108	0.0331	0.0083	9999	0	0	0	0	1	-360	360	-8.4401	-8.6368	8.4563	7.9135;
	23	32	0.0317	0.1153	0.1173	9999	0	0	0	0	1	-360	360	92.9105	5.0711	-90.1332	-6.2675;
	31	32	0.0298	0.0985	0.0251	9999	0	0	0	0	1	-360	360	-29.8271	12.3862	30.1692	-13.5928;
	27	32	0.0229	0.0755	0.01926	9999	0	0	0	0	1	-360	360	12.4982	1.7727	-12.4583	-3.4365;
	15	33	0.038	0.1244	0.03194	9999	0	0	0	0	1	-360	360	7.4567	-2.8593	-7.4335	-0.0665;
	19	34	0.0752	0.247	0.0632	9999	0	0	0	0	1	-360	360	-3.5122	-10.4216	3.5679	4.6204;
	35	36	0.00224	0.0102	0.00268	9999	0	0	0	0	1	-360	360	1.0028	-3.1532	-1.0026	2.8970;
	35	37	0.011	0.0497	0.01318	9999	0	0	0	0	1	-360	360	-34.0028	-5.8468	34.1384	5.1859;
	33	37	0.0415	0.142	0.0366	9999	0	0	0	0	1	-360	360	-15.5665	-8.9335	15.6967	5.8808;
	34	36	0.00871	0.0268	0.00568	9999	0	0	0	0	1	-360	360	30.0811	4.7477	-29.9974	-5.0380;
	34	37	0.00256	0.0094	0.00984	9999	0	0	0	0	1	-360	360	-94.1337	1.3944	94.3681	-1.4888;
	38	37	0	0.0375	0	0	0	0	1	0	1	-360	360	243.1322	51.2342	-243.1322	-28.1419;
	37	39	0.0321	0.106	0.027	9999	0	0	0	0	1	-360	360	54.9498	0.4182	-53.9525	0.2960;
	37	40	0.0593	0.168	0.042	9999	0	0	0	0	1	-360	360	43.9792	-6.1745	-42.7897	5.5254;
	30	38	0.00464	0.054	0.422	9999	0	0	0	0	1	-360	360	62.3926	-12.2903	-62.2112	-28.2140;
	39	40	0.0184	0.0605	0.01552	9999	0	0	0	0	1	-360	360	26.9525	-11.2960	-26.7880	10.3790;
	40	41	0.0145	0.0487	0.01222	9999	0	0	0	0	1	-360	360	15.4308	1.1978	-15.3936	-2.2189;
	40	42	0.0555	0.183	0.0466	9999	0	0	0	0	1	-360	360	-11.8530	-6.4415	11.9466	2.2969;
	41	42	0.041	0.135	0.0344	9999	0	0	0	0	1	-360	360	-21.6064	-7.7811	21.8278	5.2337;
	43	44	0.0608	0.2454	0.06068	9999	0	0	0	0	1	-360	360	-16.5219	-1.3544	16.6972	-3.7752;
	34	43	0.0413	0.1681	0.04226	9999	0	0	0	0	1	-360	360	1.4847	1.6093	-1.4781	-5.6456;
	44	45	0.0224	0.0901	0.0224	9999	0	0	0	0	1	-360	360	-32.6972	5.4667	32.9543	-6.6081;
	45	46	0.04	0.1356	0.0332	9999	0	0	0	0	1	-360	360	-36.3083	-3.5619	36.8518	2.1126;
	46	47	0.038	0.127	0.0316	9999	0	0	0	0	1	-360	360	-31.1246	-1.2041	31.4891	-0.8077;
	46	48	0.0601	0.189	0.0472	9999	0	0	0	0	1	-360	360	-14.7272	-5.8430	14.8634	1.4292;
	47	49	0.0191	0.0625	0.01604	9999	0	0	0	0	1	-360	360	-9.3726	-10.9063	9.4075	9.3486;
	42	49	0.0715	0.323	0.086	9999	0	0	0	0	1	-360	360	-64.8872	5.2527	68.0554	0.3701;
	42	49	0.0715	0.323	0.086	9999	0	0	0	0	1	-360	360	-64.8872	5.2527	68.0554	0.3701;
	45	49	0.0684	0.186	0.0444	9999	0	0	0	0	1	-360	360	-49.6460	-2.1002	51.3786	2.3195;
	48	49	0.0179	0.0505	0.01258	9999	0	0	0	0	1	-360	360	-34.8634	3.1962	35.0748	-3.9158;
	49	50	0.0267	0.0752	0.01874	9999	0	0	0	0	1	-360	360	53.7279	13.4119	-52.9416	-13.1208;
	49	51	0.0486	0.137	0.0342	9999	0	0	0	0	1	-360	360	66.7094	20.4270	-64.4224	-17.3752;
	51	52	0.0203	0.0588	0.01396	9999	0	0	0	0	1	-360	360	28.5839	6.2383	-28.3962	-6.9860;
	52	53	0.0405	0.1635	0.04058	9999	0	0	0	0	1	-360	360	10.3962	1.9860	-10.3418	-5.4398;
	53	54	0.0263	0.122	0.031	9999	0	0	0	0	1	-360	360	-12.6582	-5.5602	12.7104	3.0016;
	49	54	0.073	0.289	0.0738	9999	0	0	0	0	1	-360	360	37.8389	13.0591	-36.6447	-15.5738;
	49	54	0.0869	0.291	0.073	9999	0	0	0	0	1	-360	360	37.8154	11.1843	-36.4460	-13.7624;
	54	55	0.0169	0.0707	0.0202	9999	0	0	0	0	1	-360	360	7.0941	1.4520	-7.0838	-3.2451;
	54	56	0.00275	0.00955	0.00732	9999	0	0	0	0	1	-360	360	18.5931	4.3278	-18.5820	-4.9562;
	55	56	0.00488	0.0151	0.00374	9999	0	0	0	0	1	-360	360	-21.4736	-5.8068	21.5002	5.5493;
	56	57	0.0343	0.0966	0.0242	9999	0	0	0	0	1	-360	360	-23.0514	-9.0750	23.2756	7.4653;
	50	57	0.0474	0.134	0.0332	9999	0	0	0	0	1	-360	360	35.9416	9.1208	-35.2756	-10.4653;
	56	58	0.0343	0.0966	0.0242	9999	0	0	0	0	1	-360	360	-6.7179	-3.6690	6.7373	1.5098;
	51	58	0.0255	0.0719	0.01788	9999	0	0	0	0	1	-360	360	18.8385	3.1369	-18.7373	-4.5098;
	54	59	0.0503	0.2293	0.0598	9999	0	0	0	0	1	-360	360	-30.3069	-7.5290	30.8261	4.2683;
	56	59	0.0825	0.251	0.0569	9999	0	0	0	0	1	-360	360	-27.9008	-4.1992	28.6088	1.0037;
	56	59	0.0803	0.239	0.0536	9999	0	0	0	0	1	-360	360	-29.2482	-3.9340	30.0049	1.1470;
	55	59	0.04739	0.2158	0.05646	9999	0	0	0	0	1	-360	360	-34.4426	-8.2837	35.0801	5.8890;
	59	60	0.0317	0.145	0.0376	9999	0	0	0	0	1	-360	360	-43.4417	3.6110	44.0679	-4.4248;
	59	61	0.0328	0.15	0.0388	9999	0	0	0	0	1	-360	360	-51.8452	5.0709	52.7702	-4.6434;
	60	61	0.00264	0.0135	0.01456	9999	0	0	0	0	1	-360	360	-112.1357	8.5272	112.4746	-8.2332;
	60	62	0.0123	0.0561	0.01468	9999	0	0	0	0	1	-360	360	-9.9322	-7.1023	9.9496	5.7265;
	61	62	0.00824	0.0376	0.0098	9999	0	0	0	0	1	-360	360	25.4275	-13.8441	-25.3588	13.1843;
	63	59	0	0.0386	0	0	0	0	1	0	1	-360	360	151.2331	23.9649	-151.2331	-14.7787;
	63	64	0.00172	0.02	0.216	9999	0	0	0	0	1	-360	360	-151.2331	-23.9649	151.6355	7.2403;
	64	61	0	0.0268	0	0	0	0	1	0	1	-360	360	30.6723	12.5174	-30.6723	-12.2223;
	38	65	0.00901	0.0986	1.046	9999	0	0	0	0	1	-360	360	-180.9210	-23.0203	183.9404	-49.1967;
	64	65	0.00269	0.0302	0.38	9999	0	0	0	0	1	-360	360	-182.3078	-19.7576	183.2048	-8.2981;
	49	66	0.018	0.0919	0.0248	9999	0	0	0	0	1	-360	360	-132.1700	4.3087	135.1683	8.3294;
	49	66	0.018	0.0919	0.0248	9999	0	0	0	0	1	-360	360	-132.1700	4.3087	135.1683	8.3294;
	62	66	0.0482	0.218	0.0578	9999	0	0	0	0	1	-360	360	-37.2252	-17.2460	37.9957	14.6662;
	62	67	0.0258	0.117	0.031	9999	0	0	0	0	1	-360	360	-24.3655	-14.3965	24.5621	12.1326;
	65	66	0	0.037	0	0	0	0	1	0	1	-360	360	8.5573	-122.2169	-8.5573	127.7155;
	66	67	0.0224	0.1015	0.02682	9999	0	0	0	0	1	-360	360	53.2251	19.2640	-52.5621	-19.1326;
	65	68	0.00138	0.016	0.638	9999	0	0	0	0	1	-360	360	15.2975	-79.5582	-15.2637	15.0389;
	47	69	0.0844	0.2778	0.07092	9999	0	0	0	0	1	-360	360	-56.1166	11.7140	58.8791	-10.0876;
	49	69	0.0985	0.324	0.0828	9999	0	0	0	0	1	-360	360	-46.7234	10.7366	48.9835	-12.0868;
	68	69	0	0.037	0	0	0	0	1	0	1	-360	360	-122.7370	-59.3616	122.7370	66.0727;
	69	70	0.03	0.127	0.122	9999	0	0	0	0	1	-360	360	108.6241	16.0491	-105.1769	-13.8966;
	24	70	0.00221	0.4115	0.10198	9999	0	0	0	0	1	-360	360	-6.1870	-2.9750	6.1880	-6.8024;
	70	71	0.00882	0.0355	0.00878	9999	0	0	0	0	1	-360	360	16.6262	-12.3706	-16.5880	11.6717;
	24	72	0.0488	0.196	0.0488	9999	0	0	0	0	1	-360	360	1.4935	3.3005	-1.4763	-7.9758;
	71	72	0.0446	0.18	0.04444	9999	0	0	0	0	1	-360	360	10.5756	-0.9336	-10.5237	-3.1548;
	71	73	0.00866	0.0454	0.01178	9999	0	0	0	0	1	-360	360	6.0124	-10.7381	-6.0000	9.6511;
	70	74	0.0401	0.1323	0.03368	9999	0	0	0	0	1	-360	360	16.3366	12.8558	-16.1392	-15.3805;
	70	75	0.0428	0.141	0.036	9999	0	0	0	0	1	-360	360	0.0261	9.8969	0.0338	-13.1268;
	69	75	0.0405	0.122	0.124	9999	0	0	0	0	1	-360	360	110.4496	20.4050	-105.5609	-18.1216;
	74	75	0.0123	0.0406	0.01034	9999	0	0	0	0	1	-360	360	-51.8608	-6.2105	52.2257	6.4566;
	76	77	0.0444	0.148	0.0368	9999	0	0	0	0	1	-360	360	-60.8504	-21.1588	62.8895	24.4574;
	69	77	0.0309	0.101	0.1038	9999	0	0	0	0	1	-360	360	63.6213	6.4385	-62.4122	-13.2985;
	75	77	0.0601	0.1999	0.04978	9999	0	0	0	0	1	-360	360	-34.2165	-9.7050	35.0034	7.4745;
	77	78	0.00376	0.0124	0.01264	9999	0	0	0	0	1	-360	360	45.8484	6.4951	-45.7684	-7.5072;
	78	79	0.00546	0.0244	0.00648	9999	0	0	0	0	1	-360	360	-25.2316	-18.4928	25.2840	18.0708;
	77	80	0.017	0.0485	0.0472	9999	0	0	0	0	1	-360	360	-95.6295	-37.7866	97.3761	37.8287;
	77	80	0.0294	0.105	0.0228	9999	0	0	0	0	1	-360	360	-43.9113	-20.6920	44.5823	20.7019;
	79	80	0.0156	0.0704	0.0187	9999	0	0	0	0	1	-360	360	-64.2840	-29.7001	65.0435	31.1640;
	68	81	0.00175	0.0202	0.808	9999	0	0	0	0	1	-360	360	-46.2059	-115.6324	46.3365	33.0450;
	81	80	0	0.037	0	0	0	0	1	0	1	-360	360	-46.3365	-33.0450	46.3365	34.1792;
	77	82	0.0298	0.0853	0.08174	9999	0	0	0	0	1	-360	360	-2.7884	17.4722	2.9282	-25.2022;
	82	83	0.0112	0.03665	0.03796	9999	0	0	0	0	1	-360	360	-47.1804	24.3728	47.5144	-26.9739;
	83	84	0.0625	0.132	0.0258	9999	0	0	0	0	1	-360	360	-24.7692	14.6772	25.3285	-15.9840;
	83	85	0.043	0.148	0.0348	9999	0	0	0	0	1	-360	360	-42.7452	11.9867	43.6390	-12.2847;
	84	85	0.0302	0.0641	0.01234	9999	0	0	0	0	1	-360	360	-36.3285	8.9840	36.7726	-9.2323;
	85	86	0.035	0.123	0.0276	9999	0	0	0	0	1	-360	360	17.1725	-7.3537	-17.0531	5.0910;
	86	87	0.02828	0.2074	0.0445	0	0	0	1	0	1	-360	360	-3.9469	-15.0910	4.0000	11.0216;
	85	88	0.02	0.102	0.0276	9999	0	0	0	0	1	-360	360	-50.3704	7.5928	50.9098	-7.5261;
	85	89	0.0239	0.173	0.047	9999	0	0	0	0	1	-360	360	-71.2137	0.6709	72.4651	3.7338;
	88	89	0.0139	0.0712	0.01934	9999	0	0	0	0	1	-360	360	-98.9098	-2.4739	100.3048	7.6997;
	89	90	0.0518	0.188	0.0528	9999	0	0	0	0	1	-360	360	58.2206	-4.7246	-56.4800	5.8139;
	89	90	0.0238	0.0997	0.106	9999	0	0	0	0	1	-360	360	110.8321	-5.4425	-107.9376	7.0725;
	90	91	0.0254	0.0836	0.0214	9999	0	0	0	0	1	-360	360	1.4176	4.4223	-1.4093	-6.4607;
	89	92	0.0099	0.0505	0.0548	9999	0	0	0	0	1	-360	360	201.5729	-2.1069	-197.5902	16.9695;
	89	92	0.0393	0.1581	0.0414	9999	0	0	0	0	1	-360	360	63.6045	-5.0682	-62.0270	7.2950;
	91	92	0.0387	0.1272	0.03268	9999	0	0	0	0	1	-360	360	-8.5907	-6.6274	8.6308	3.5883;
	92	93	0.0258	0.0848	0.0218	9999	0	0	0	0	1	-360	360	57.6315	-11.6586	-56.7276	12.5026;
	92	94	0.0481	0.158	0.0406	9999	0	0	0	0	1	-360	360	52.1781	-15.2148	-50.7561	15.9072;
	93	94	0.0223	0.0732	0.01876	9999	0	0	0	0	1	-360	360	44.7276	-19.5026	-44.1888	19.4413;
	94	95	0.0132	0.0434	0.0111	9999	0	0	0	0	1	-360	360	40.8461	9.0206	-40.6090	-9.3182;
	80	96	0.0356	0.182	0.0494	9999	0	0	0	0	1	-360	360	18.8827	21.0831	-18.5797	-24.6372;
	82	96	0.0162	0.053	0.0544	9999	0	0	0	0	1	-360	360	-9.7477	-6.6263	9.7661	1.3502;
	94	96	0.0269	0.0869	0.023	9999	0	0	0	0	1	-360	360	19.7709	-9.8143	-19.6429	7.9689;
	80	97	0.0183	0.0934	0.0254	9999	0	0	0	0	1	-360	360	26.3399	25.7694	-26.0979	-27.2062;
	80	98	0.0238	0.108	0.0286	9999	0	0	0	0	1	-360	360	28.9119	8.3249	-28.7065	-10.4377;
	80	99	0.0454	0.206	0.0546	9999	0	0	0	0	1	-360	360	19.5270	8.1753	-19.3150	-12.9509;
	92	100	0.0648	0.295	0.0472	9999	0	0	0	0	1	-360	360	31.5114	-16.5339	-30.7212	15.3774;
	94	100	0.0178	0.058	0.0604	9999	0	0	0	0	1	-360	360	4.3279	-50.5549	-3.9129	45.8246;
	95	96	0.0171	0.0547	0.01474	9999	0	0	0	0	1	-360	360	-1.3910	-21.6818	1.4696	20.4993;
	96	97	0.0173	0.0885	0.024	9999	0	0	0	0	1	-360	360	-11.0131	-20.1812	11.0979	18.2062;
	98	100	0.0397	0.179	0.0476	9999	0	0	0	0	1	-360	360	-5.2935	2.4377	5.3133	-7.3031;
	99	100	0.018	0.0813	0.0216	9999	0	0	0	0	1	-360	360	-22.6850	-4.5853	22.7780	2.7864;
	100	101	0.0277	0.1262	0.0328	9999	0	0	0	0	1	-360	360	-16.7563	22.9041	16.9935	-25.1313;
	92	102	0.0123	0.0559	0.01464	9999	0	0	0	0	1	-360	360	44.6654	-8.3913	-44.4076	8.1291;
	101	102	0.0246	0.112	0.0294	9999	0	0	0	0	1	-360	360	-38.9935	10.1313	39.4076	-11.1291;
	100	103	0.016	0.0525	0.0536	9999	0	0	0	0	1	-360	360	121.7533	-22.1485	-119.4020	24.3578;
	100	104	0.0451	0.204	0.0541	9999	0	0	0	0	1	-360	360	56.1847	10.6470	-54.7294	-9.4124;
	103	104	0.0466	0.1584	0.0407	9999	0	0	0	0	1	-360	360	32.4521	13.8671	-31.8549	-15.8317;
	103	105	0.0535	0.1625	0.0408	9999	0	0	0	0	1	-360	360	43.3511	12.8485	-42.2486	-13.4804;
	100	106	0.0605	0.229	0.062	9999	0	0	0	0	1	-360	360	60.3612	9.4760	-58.1359	-7.1230;
	104	105	0.00994	0.0378	0.00986	9999	0	0	0	0	1	-360	360	48.5843	2.6323	-48.3344	-2.6061;
	105	106	0.014	0.0547	0.01434	9999	0	0	0	0	1	-360	360	8.8631	3.8799	-8.8482	-5.1517;
	105	107	0.053	0.183	0.0472	9999	0	0	0	0	1	-360	360	26.7547	-2.3749	-26.3473	-0.5549;
	105	108	0.0261	0.0703	0.01844	9999	0	0	0	0	1	-360	360	23.9651	-11.1285	-23.7746	9.9223;
	106	107	0.053	0.183	0.0472	9999	0	0	0	0	1	-360	360	23.9841	-3.7253	-23.6527	0.5505;
	108	109	0.0105	0.0288	0.0076	9999	0	0	0	0	1	-360	360	21.7746	-10.9223	-21.7087	10.3929;
	103	110	0.03906	0.1813	0.0461	9999	0	0	0	0	1	-360	360	60.5988	8.3489	-59.1489	-6.1524;
	109	110	0.0278	0.0762	0.0202	9999	0	0	0	0	1	-360	360	13.7087	-13.3929	-13.6068	11.7716;
	110	111	0.022	0.0755	0.02	9999	0	0	0	0	1	-360	360	-35.7029	0.9561	36.0000	-1.8438;
	110	112	0.0247	0.064	0.062	9999	0	0	0	0	1	-360	360	69.4586	-30.6142	-68.0000	28.5117;
	17	113	0.00913	0.0301	0.00768	9999	0	0	0	0	1	-360	360	2.1377	-7.8159	-2.1321	7.0786;
	32	113	0.0615	0.203	0.0518	9999	0	0	0	0	1	-360	360	4.0354	-17.7758	-3.8679	13.3730;
	32	114	0.0135	0.0612	0.01628	9999	0	0	0	0	1	-360	360	9.3869	1.7743	-9.3731	-3.2172;
	27	115	0.0164	0.0741	0.01972	9999	0	0	0	0	1	-360	360	20.7082	5.0635	-20.6269	-6.5287;
	114	115	0.0023	0.0104	0.00276	9999	0	0	0	0	1	-360	360	1.3731	0.2172	-1.3731	-0.4713;
	68	116	0.00034	0.00405	0.164	0	0	0	1	0	1	-360	360	184.2066	159.9552	-184.0000	-174.1797;
	12	117	0.0329	0.14	0.0358	9999	0	0	0	0	1	-360	360	20.1525	5.1973	-20.0000	-8.0000;
	75	118	0.0145	0.0481	0.01198	9999	0	0	0	0	1	-360	360	40.5180	23.4967	-40.1739	-23.4557;
	76	118	0.0164	0.0544	0.01356	9999	0	0	0	0	1	-360	360	-7.1496	-9.5891	7.1739	8.4557;
];

%%-----  OPF Data  -----%%
%% generator cost data
%	1	startup	shutdown	n	x1	y1	...	xn	yn
%	2	startup	shutdown	n	c(n-1)	...	c0
mpc.gencost = [
	2	0	0	3	0.01	40	0;
	2	0	0	3	0.01	40	0;
	2	0	0	3	0.01	40	0;
	2	0	0	3	0.01	40	0;
	2	0	0	3	0.0222222222	20	0;
	2	0	0	3	0.117647059	20	0;
	2	0	0	3	0.01	40	0;
	2	0	0	3	0.01	40	0;
	2	0	0	3	0.01	40	0;
	2	0	0	3	0.01	40	0;
	2	0	0	3	0.0454545455	20	0;
	2	0	0	3	0.0318471338	20	0;
	2	0	0	3	0.01	40	0;
	2	0	0	3	1.42857143	20	0;
	2	0	0	3	0.01	40	0;
	2	0	0	3	0.01	40	0;
	2	0	0	3	0.01	40	0;
	2	0	0	3	0.01	40	0;
	2	0	0	3	0.01	40	0;
	2	0	0	3	0.526315789	20	0;
	2	0	0	3	0.0490196078	20	0;
	2	0	0	3	0.208333333	20	0;
	2	0	0	3	0.01	40	0;
	2	0	0	3	0.01	40	0;
	2	0	0	3	0.064516129	20	0;
	2	0	0	3	0.0625	20	0;
	2	0	0	3	0.01	40	0;
	2	0	0	3	0.0255754476	20	0;
	2	0	0	3	0.0255102041	20	0;
	2	0	0	3	0.0193648335	20	0;
	2	0	0	3	0.01	40	0;
	2	0	0	3	0.01	40	0;
	2	0	0	3	0.01	40	0;
	2	0	0	3	0.01	40	0;
	2	0	0	3	0.01	40	0;
	2	0	0	3	0.01	40	0;
	2	0	0	3	0.0209643606	20	0;
	2	0	0	3	0.01	40	0;
	2	0	0	3	2.5	20	0;
	2	0	0	3	0.0164744646	20	0;
	2	0	0	3	0.01	40	0;
	2	0	0	3	0.01	40	0;
	2	0	0	3	0.01	40	0;
	2	0	0	3	0.01	40	0;
	2	0	0	3	0.0396825397	20	0;
	2	0	0	3	0.25	20	0;
	2	0	0	3	0.01	40	0;
	2	0	0	3	0.01	40	0;
	2	0	0	3	0.01	40	0;
	2	0	0	3	0.01	40	0;
	2	0	0	3	0.277777778	20	0;
	2	0	0	3	0.01	40	0;
	2	0	0	3	0.01	40	0;
	2	0	0	3	0.01	40	0;
];

%% bus names
mpc.bus_name = {
	'Riversde  V2';
	'Pokagon   V2';
	'HickryCk  V2';
	'NwCarlsl  V2';
	'Olive     V2';
	'Kankakee  V2';
	'JacksnRd  V2';
	'Olive     V1';
	'Bequine   V1';
	'Breed     V1';
	'SouthBnd  V2';
	'TwinBrch  V2';
	'Concord   V2';
	'GoshenJt  V2';
	'FtWayne   V2';
	'N. E.     V2';
	'Sorenson  V2';
	'McKinley  V2';
	'Lincoln   V2';
	'Adams     V2';
	'Jay       V2';
	'Randolph  V2';
	'CollCrnr  V2';
	'Trenton   V2';
	'TannrsCk  V2';
	'TannrsCk  V1';
	'Madison   V2';
	'Mullin    V2';
	'Grant     V2';
	'Sorenson  V1';
	'DeerCrk   V2';
	'Delaware  V2';
	'Haviland  V2';
	'Rockhill  V2';
	'WestLima  V2';
	'Sterling  V2';
	'EastLima  V2';
	'EastLima  V1';
	'NwLibrty  V2';
	'West End  V2';
	'S.Tiffin  V2';
	'Howard    V2';
	'S.Kenton  V2';
	'WMVernon  V2';
	'N.Newark  V2';
	'W.Lancst  V2';
	'Crooksvl  V2';
	'Zanesvll  V2';
	'Philo     V2';
	'WCambrdg  V2';
	'Newcmrst  V2';
	'SCoshoct  V2';
	'Wooster   V2';
	'Torrey    V2';
	'Wagenhls  V2';
	'Sunnysde  V2';
	'WNwPhil1  V2';
	'WNwPhil2  V2';
	'Tidd      V2';
	'SWKammer  V2';
	'W.Kammer  V2';
	'Natrium   V2';
	'Tidd      V1';
	'Kammer    V1';
	'Muskngum  V1';
	'Muskngum  V2';
	'Summerfl  V2';
	'Sporn     V1';
	'Sporn     V2';
	'Portsmth  V2';
	'NPortsmt  V2';
	'Hillsbro  V2';
	'Sargents  V2';
	'Bellefnt  V2';
	'SthPoint  V2';
	'Darrah    V2';
	'Turner    V2';
	'Chemical  V2';
	'CapitlHl  V2';
	'CabinCrk  V2';
	'Kanawha   V1';
	'Logan     V2';
	'Sprigg    V2';
	'BetsyLne  V2';
	'BeaverCk  V2';
	'Hazard    V2';
	'Pinevlle  V3';
	'Fremont   V2';
	'ClinchRv  V2';
	'Holston   V2';
	'HolstonT  V2';
	'Saltvlle  V2';
	'Tazewell  V2';
	'Switchbk  V2';
	'Caldwell  V2';
	'Baileysv  V2';
	'Sundial   V2';
	'Bradley   V2';
	'Hinton    V2';
	'Glen Lyn  V2';
	'Wythe     V2';
	'Smythe    V2';
	'Claytor   V2';
	'Hancock   V2';
	'Roanoke   V2';
	'Cloverdl  V2';
	'Reusens   V2';
	'Blaine    V2';
	'Franklin  V2';
	'Fieldale  V2';
	'DanRiver  V2';
	'Danville  V2';
	'Deer Crk  V2';
	'WMedford  V2';
	'Medford   V2';
	'KygerCrk  V2';
	'Corey     V2';
	'WHuntngd  V2';
};
